<?xml version="1.0" encoding="UTF-8"?>

<!-- generated on Thu Feb 25 16:05:46 2016 by SUMO netconvert Version 0.25.0
<?xml version="1.0" encoding="UTF-8"?>

<configuration xmlns:xsi="http://www.w3.org/2001/XMLSchema-instance" xsi:noNamespaceSchemaLocation="http://sumo.dlr.de/xsd/netconvertConfiguration.xsd">

    <input>
        <node-files value="reroute.nod.xml"/>
        <edge-files value="reroute.edg.xml"/>
    </input>

    <output>
        <output-file value="reroute.net.xml"/>
    </output>

</configuration>
-->

<net version="0.25" xmlns:xsi="http://www.w3.org/2001/XMLSchema-instance" xsi:noNamespaceSchemaLocation="http://sumo.dlr.de/xsd/net_file.xsd">

    <location netOffset="10.00,10.00" convBoundary="0.00,0.00,520.00,245.00" origBoundary="-10.00,-10.00,510.00,235.00" projParameter="!"/>

    <edge id=":1_0" function="internal">
        <lane id=":1_0_0" index="0" speed="13.90" length="10.32" shape="8.35,14.75 8.75,11.95 9.95,9.95 11.95,8.75 14.75,8.35"/>
    </edge>
    <edge id=":1_1" function="internal">
        <lane id=":1_1_0" index="0" speed="13.90" length="4.82" shape="8.35,14.75 9.17,13.51 10.00,13.10 10.82,13.51 11.65,14.75"/>
    </edge>
    <edge id=":1_2" function="internal">
        <lane id=":1_2_0" index="0" speed="13.90" length="5.00" shape="14.75,11.65 13.39,11.84 12.43,12.43 11.84,13.39 11.65,14.75"/>
    </edge>
    <edge id=":1_3" function="internal">
        <lane id=":1_3_0" index="0" speed="13.90" length="4.82" shape="14.75,11.65 13.51,10.83 13.10,10.00 13.51,9.18 14.75,8.35"/>
    </edge>
    <edge id=":1_4" function="internal">
        <lane id=":1_4_0" index="0" speed="13.90" length="9.04" shape="6.82,4.49 8.76,6.18 10.73,7.38 12.73,8.11 14.75,8.35"/>
    </edge>
    <edge id=":1_5" function="internal">
        <lane id=":1_5_0" index="0" speed="13.90" length="11.63" shape="6.82,4.49 8.93,6.94 10.44,9.47 11.35,12.07 11.65,14.75"/>
    </edge>
    <edge id=":10_0" function="internal">
        <lane id=":10_0_0" index="0" speed="13.90" length="5.00" shape="308.35,89.75 308.16,88.39 307.58,87.43 306.61,86.84 305.25,86.65"/>
    </edge>
    <edge id=":10_1" function="internal">
        <lane id=":10_1_0" index="0" speed="13.90" length="9.50" shape="308.35,89.75 308.35,80.25"/>
    </edge>
    <edge id=":10_2" function="internal">
        <lane id=":10_2_0" index="0" speed="13.90" length="10.32" shape="308.35,89.75 308.75,86.95 309.95,84.95 311.95,83.75 314.75,83.35"/>
    </edge>
    <edge id=":10_3" function="internal">
        <lane id=":10_3_0" index="0" speed="13.90" length="4.82" shape="308.35,89.75 309.17,88.51 310.00,88.10 310.82,88.51 311.65,89.75"/>
    </edge>
    <edge id=":10_4" function="internal">
        <lane id=":10_4_0" index="0" speed="13.90" length="5.00" shape="314.75,86.65 313.39,86.84 312.42,87.43 311.84,88.39 311.65,89.75"/>
    </edge>
    <edge id=":10_5" function="internal">
        <lane id=":10_5_0" index="0" speed="13.90" length="9.50" shape="314.75,86.65 305.25,86.65"/>
    </edge>
    <edge id=":10_6" function="internal">
        <lane id=":10_6_0" index="0" speed="13.90" length="10.32" shape="314.75,86.65 311.95,86.25 309.95,85.05 308.75,83.05 308.35,80.25"/>
    </edge>
    <edge id=":10_7" function="internal">
        <lane id=":10_7_0" index="0" speed="13.90" length="4.82" shape="314.75,86.65 313.51,85.82 313.10,85.00 313.51,84.17 314.75,83.35"/>
    </edge>
    <edge id=":10_8" function="internal">
        <lane id=":10_8_0" index="0" speed="13.90" length="5.00" shape="311.65,80.25 311.84,81.61 312.42,82.57 313.39,83.16 314.75,83.35"/>
    </edge>
    <edge id=":10_9" function="internal">
        <lane id=":10_9_0" index="0" speed="13.90" length="9.50" shape="311.65,80.25 311.65,89.75"/>
    </edge>
    <edge id=":10_10" function="internal">
        <lane id=":10_10_0" index="0" speed="13.90" length="10.32" shape="311.65,80.25 311.25,83.05 310.05,85.05 308.05,86.25 305.25,86.65"/>
    </edge>
    <edge id=":10_11" function="internal">
        <lane id=":10_11_0" index="0" speed="13.90" length="4.82" shape="311.65,80.25 310.83,81.49 310.00,81.90 309.18,81.49 308.35,80.25"/>
    </edge>
    <edge id=":10_12" function="internal">
        <lane id=":10_12_0" index="0" speed="13.90" length="5.00" shape="305.25,83.35 306.61,83.16 307.58,82.57 308.16,81.61 308.35,80.25"/>
    </edge>
    <edge id=":10_13" function="internal">
        <lane id=":10_13_0" index="0" speed="13.90" length="9.50" shape="305.25,83.35 314.75,83.35"/>
    </edge>
    <edge id=":10_14" function="internal">
        <lane id=":10_14_0" index="0" speed="13.90" length="10.32" shape="305.25,83.35 308.05,83.75 310.05,84.95 311.25,86.95 311.65,89.75"/>
    </edge>
    <edge id=":10_15" function="internal">
        <lane id=":10_15_0" index="0" speed="13.90" length="4.82" shape="305.25,83.35 306.49,84.18 306.90,85.00 306.49,85.83 305.25,86.65"/>
    </edge>
    <edge id=":11_0" function="internal">
        <lane id=":11_0_0" index="0" speed="13.90" length="5.00" shape="408.35,89.75 408.16,88.39 407.58,87.43 406.61,86.84 405.25,86.65"/>
    </edge>
    <edge id=":11_1" function="internal">
        <lane id=":11_1_0" index="0" speed="13.90" length="9.50" shape="408.35,89.75 408.35,80.25"/>
    </edge>
    <edge id=":11_2" function="internal">
        <lane id=":11_2_0" index="0" speed="13.90" length="10.32" shape="408.35,89.75 408.75,86.95 409.95,84.95 411.95,83.75 414.75,83.35"/>
    </edge>
    <edge id=":11_3" function="internal">
        <lane id=":11_3_0" index="0" speed="13.90" length="4.82" shape="408.35,89.75 409.17,88.51 410.00,88.10 410.82,88.51 411.65,89.75"/>
    </edge>
    <edge id=":11_4" function="internal">
        <lane id=":11_4_0" index="0" speed="13.90" length="5.00" shape="414.75,86.65 413.39,86.84 412.42,87.43 411.84,88.39 411.65,89.75"/>
    </edge>
    <edge id=":11_5" function="internal">
        <lane id=":11_5_0" index="0" speed="13.90" length="9.50" shape="414.75,86.65 405.25,86.65"/>
    </edge>
    <edge id=":11_6" function="internal">
        <lane id=":11_6_0" index="0" speed="13.90" length="10.32" shape="414.75,86.65 411.95,86.25 409.95,85.05 408.75,83.05 408.35,80.25"/>
    </edge>
    <edge id=":11_7" function="internal">
        <lane id=":11_7_0" index="0" speed="13.90" length="4.82" shape="414.75,86.65 413.51,85.82 413.10,85.00 413.51,84.17 414.75,83.35"/>
    </edge>
    <edge id=":11_8" function="internal">
        <lane id=":11_8_0" index="0" speed="13.90" length="5.00" shape="411.65,80.25 411.84,81.61 412.42,82.57 413.39,83.16 414.75,83.35"/>
    </edge>
    <edge id=":11_9" function="internal">
        <lane id=":11_9_0" index="0" speed="13.90" length="9.50" shape="411.65,80.25 411.65,89.75"/>
    </edge>
    <edge id=":11_10" function="internal">
        <lane id=":11_10_0" index="0" speed="13.90" length="10.32" shape="411.65,80.25 411.25,83.05 410.05,85.05 408.05,86.25 405.25,86.65"/>
    </edge>
    <edge id=":11_11" function="internal">
        <lane id=":11_11_0" index="0" speed="13.90" length="4.82" shape="411.65,80.25 410.83,81.49 410.00,81.90 409.18,81.49 408.35,80.25"/>
    </edge>
    <edge id=":11_12" function="internal">
        <lane id=":11_12_0" index="0" speed="13.90" length="5.00" shape="405.25,83.35 406.61,83.16 407.58,82.57 408.16,81.61 408.35,80.25"/>
    </edge>
    <edge id=":11_13" function="internal">
        <lane id=":11_13_0" index="0" speed="13.90" length="9.50" shape="405.25,83.35 414.75,83.35"/>
    </edge>
    <edge id=":11_14" function="internal">
        <lane id=":11_14_0" index="0" speed="13.90" length="10.32" shape="405.25,83.35 408.05,83.75 410.05,84.95 411.25,86.95 411.65,89.75"/>
    </edge>
    <edge id=":11_15" function="internal">
        <lane id=":11_15_0" index="0" speed="13.90" length="4.82" shape="405.25,83.35 406.49,84.18 406.90,85.00 406.49,85.83 405.25,86.65"/>
    </edge>
    <edge id=":12_0" function="internal">
        <lane id=":12_0_0" index="0" speed="13.90" length="5.00" shape="508.35,89.75 508.16,88.39 507.58,87.43 506.61,86.84 505.25,86.65"/>
    </edge>
    <edge id=":12_1" function="internal">
        <lane id=":12_1_0" index="0" speed="13.90" length="9.50" shape="508.35,89.75 508.35,80.25"/>
    </edge>
    <edge id=":12_2" function="internal">
        <lane id=":12_2_0" index="0" speed="13.90" length="4.82" shape="508.35,89.75 509.18,88.51 510.00,88.10 510.82,88.51 511.65,89.75"/>
    </edge>
    <edge id=":12_3" function="internal">
        <lane id=":12_3_0" index="0" speed="13.90" length="9.50" shape="511.65,80.25 511.65,89.75"/>
    </edge>
    <edge id=":12_4" function="internal">
        <lane id=":12_4_0" index="0" speed="13.90" length="10.32" shape="511.65,80.25 511.25,83.05 510.05,85.05 508.05,86.25 505.25,86.65"/>
    </edge>
    <edge id=":12_5" function="internal">
        <lane id=":12_5_0" index="0" speed="13.90" length="4.82" shape="511.65,80.25 510.82,81.49 510.00,81.90 509.18,81.49 508.35,80.25"/>
    </edge>
    <edge id=":12_6" function="internal">
        <lane id=":12_6_0" index="0" speed="13.90" length="5.00" shape="505.25,83.35 506.61,83.16 507.58,82.57 508.16,81.61 508.35,80.25"/>
    </edge>
    <edge id=":12_7" function="internal">
        <lane id=":12_7_0" index="0" speed="13.90" length="10.32" shape="505.25,83.35 508.05,83.75 510.05,84.95 511.25,86.95 511.65,89.75"/>
    </edge>
    <edge id=":12_8" function="internal">
        <lane id=":12_8_0" index="0" speed="13.90" length="4.82" shape="505.25,83.35 506.49,84.18 506.90,85.00 506.49,85.83 505.25,86.65"/>
    </edge>
    <edge id=":13_0" function="internal">
        <lane id=":13_0_0" index="0" speed="13.90" length="9.50" shape="8.35,164.75 8.35,155.25"/>
    </edge>
    <edge id=":13_1" function="internal">
        <lane id=":13_1_0" index="0" speed="13.90" length="10.32" shape="8.35,164.75 8.75,161.95 9.95,159.95 11.95,158.75 14.75,158.35"/>
    </edge>
    <edge id=":13_2" function="internal">
        <lane id=":13_2_0" index="0" speed="13.90" length="4.82" shape="8.35,164.75 9.17,163.51 10.00,163.10 10.82,163.51 11.65,164.75"/>
    </edge>
    <edge id=":13_3" function="internal">
        <lane id=":13_3_0" index="0" speed="13.90" length="5.00" shape="14.75,161.65 13.39,161.84 12.43,162.43 11.84,163.39 11.65,164.75"/>
    </edge>
    <edge id=":13_4" function="internal">
        <lane id=":13_4_0" index="0" speed="13.90" length="10.32" shape="14.75,161.65 11.95,161.25 9.95,160.05 8.75,158.05 8.35,155.25"/>
    </edge>
    <edge id=":13_5" function="internal">
        <lane id=":13_5_0" index="0" speed="13.90" length="4.82" shape="14.75,161.65 13.51,160.83 13.10,160.00 13.51,159.18 14.75,158.35"/>
    </edge>
    <edge id=":13_6" function="internal">
        <lane id=":13_6_0" index="0" speed="13.90" length="5.00" shape="11.65,155.25 11.84,156.61 12.43,157.58 13.39,158.16 14.75,158.35"/>
    </edge>
    <edge id=":13_7" function="internal">
        <lane id=":13_7_0" index="0" speed="13.90" length="9.50" shape="11.65,155.25 11.65,164.75"/>
    </edge>
    <edge id=":13_8" function="internal">
        <lane id=":13_8_0" index="0" speed="13.90" length="4.82" shape="11.65,155.25 10.83,156.49 10.00,156.90 9.18,156.49 8.35,155.25"/>
    </edge>
    <edge id=":14_0" function="internal">
        <lane id=":14_0_0" index="0" speed="13.90" length="5.00" shape="108.35,164.75 108.16,163.39 107.57,162.43 106.61,161.84 105.25,161.65"/>
    </edge>
    <edge id=":14_1" function="internal">
        <lane id=":14_1_0" index="0" speed="13.90" length="9.50" shape="108.35,164.75 108.35,155.25"/>
    </edge>
    <edge id=":14_2" function="internal">
        <lane id=":14_2_0" index="0" speed="13.90" length="10.32" shape="108.35,164.75 108.75,161.95 109.95,159.95 111.95,158.75 114.75,158.35"/>
    </edge>
    <edge id=":14_3" function="internal">
        <lane id=":14_3_0" index="0" speed="13.90" length="4.82" shape="108.35,164.75 109.18,163.51 110.00,163.10 110.83,163.51 111.65,164.75"/>
    </edge>
    <edge id=":14_4" function="internal">
        <lane id=":14_4_0" index="0" speed="13.90" length="5.00" shape="114.75,161.65 113.39,161.84 112.43,162.43 111.84,163.39 111.65,164.75"/>
    </edge>
    <edge id=":14_5" function="internal">
        <lane id=":14_5_0" index="0" speed="13.90" length="9.50" shape="114.75,161.65 105.25,161.65"/>
    </edge>
    <edge id=":14_6" function="internal">
        <lane id=":14_6_0" index="0" speed="13.90" length="10.32" shape="114.75,161.65 111.95,161.25 109.95,160.05 108.75,158.05 108.35,155.25"/>
    </edge>
    <edge id=":14_7" function="internal">
        <lane id=":14_7_0" index="0" speed="13.90" length="4.82" shape="114.75,161.65 113.51,160.83 113.10,160.00 113.51,159.18 114.75,158.35"/>
    </edge>
    <edge id=":14_8" function="internal">
        <lane id=":14_8_0" index="0" speed="13.90" length="5.00" shape="111.65,155.25 111.84,156.61 112.43,157.58 113.39,158.16 114.75,158.35"/>
    </edge>
    <edge id=":14_9" function="internal">
        <lane id=":14_9_0" index="0" speed="13.90" length="9.50" shape="111.65,155.25 111.65,164.75"/>
    </edge>
    <edge id=":14_10" function="internal">
        <lane id=":14_10_0" index="0" speed="13.90" length="10.32" shape="111.65,155.25 111.25,158.05 110.05,160.05 108.05,161.25 105.25,161.65"/>
    </edge>
    <edge id=":14_11" function="internal">
        <lane id=":14_11_0" index="0" speed="13.90" length="4.82" shape="111.65,155.25 110.82,156.49 110.00,156.90 109.17,156.49 108.35,155.25"/>
    </edge>
    <edge id=":14_12" function="internal">
        <lane id=":14_12_0" index="0" speed="13.90" length="5.00" shape="105.25,158.35 106.61,158.16 107.57,157.57 108.16,156.61 108.35,155.25"/>
    </edge>
    <edge id=":14_13" function="internal">
        <lane id=":14_13_0" index="0" speed="13.90" length="9.50" shape="105.25,158.35 114.75,158.35"/>
    </edge>
    <edge id=":14_14" function="internal">
        <lane id=":14_14_0" index="0" speed="13.90" length="10.32" shape="105.25,158.35 108.05,158.75 110.05,159.95 111.25,161.95 111.65,164.75"/>
    </edge>
    <edge id=":14_15" function="internal">
        <lane id=":14_15_0" index="0" speed="13.90" length="4.82" shape="105.25,158.35 106.49,159.17 106.90,160.00 106.49,160.82 105.25,161.65"/>
    </edge>
    <edge id=":15_0" function="internal">
        <lane id=":15_0_0" index="0" speed="13.90" length="5.00" shape="208.35,164.75 208.16,163.39 207.57,162.43 206.61,161.84 205.25,161.65"/>
    </edge>
    <edge id=":15_1" function="internal">
        <lane id=":15_1_0" index="0" speed="13.90" length="9.50" shape="208.35,164.75 208.35,155.25"/>
    </edge>
    <edge id=":15_2" function="internal">
        <lane id=":15_2_0" index="0" speed="13.90" length="10.32" shape="208.35,164.75 208.75,161.95 209.95,159.95 211.95,158.75 214.75,158.35"/>
    </edge>
    <edge id=":15_3" function="internal">
        <lane id=":15_3_0" index="0" speed="13.90" length="4.82" shape="208.35,164.75 209.17,163.51 210.00,163.10 210.82,163.51 211.65,164.75"/>
    </edge>
    <edge id=":15_4" function="internal">
        <lane id=":15_4_0" index="0" speed="13.90" length="5.00" shape="214.75,161.65 213.39,161.84 212.42,162.43 211.84,163.39 211.65,164.75"/>
    </edge>
    <edge id=":15_5" function="internal">
        <lane id=":15_5_0" index="0" speed="13.90" length="9.50" shape="214.75,161.65 205.25,161.65"/>
    </edge>
    <edge id=":15_6" function="internal">
        <lane id=":15_6_0" index="0" speed="13.90" length="10.32" shape="214.75,161.65 211.95,161.25 209.95,160.05 208.75,158.05 208.35,155.25"/>
    </edge>
    <edge id=":15_7" function="internal">
        <lane id=":15_7_0" index="0" speed="13.90" length="4.82" shape="214.75,161.65 213.51,160.83 213.10,160.00 213.51,159.18 214.75,158.35"/>
    </edge>
    <edge id=":15_8" function="internal">
        <lane id=":15_8_0" index="0" speed="13.90" length="5.00" shape="211.65,155.25 211.84,156.61 212.43,157.57 213.39,158.16 214.75,158.35"/>
    </edge>
    <edge id=":15_9" function="internal">
        <lane id=":15_9_0" index="0" speed="13.90" length="9.50" shape="211.65,155.25 211.65,164.75"/>
    </edge>
    <edge id=":15_10" function="internal">
        <lane id=":15_10_0" index="0" speed="13.90" length="10.32" shape="211.65,155.25 211.25,158.05 210.05,160.05 208.05,161.25 205.25,161.65"/>
    </edge>
    <edge id=":15_11" function="internal">
        <lane id=":15_11_0" index="0" speed="13.90" length="4.82" shape="211.65,155.25 210.83,156.49 210.00,156.90 209.18,156.49 208.35,155.25"/>
    </edge>
    <edge id=":15_12" function="internal">
        <lane id=":15_12_0" index="0" speed="13.90" length="5.00" shape="205.25,158.35 206.61,158.16 207.58,157.57 208.16,156.61 208.35,155.25"/>
    </edge>
    <edge id=":15_13" function="internal">
        <lane id=":15_13_0" index="0" speed="13.90" length="9.50" shape="205.25,158.35 214.75,158.35"/>
    </edge>
    <edge id=":15_14" function="internal">
        <lane id=":15_14_0" index="0" speed="13.90" length="10.32" shape="205.25,158.35 208.05,158.75 210.05,159.95 211.25,161.95 211.65,164.75"/>
    </edge>
    <edge id=":15_15" function="internal">
        <lane id=":15_15_0" index="0" speed="13.90" length="4.82" shape="205.25,158.35 206.49,159.17 206.90,160.00 206.49,160.82 205.25,161.65"/>
    </edge>
    <edge id=":16_0" function="internal">
        <lane id=":16_0_0" index="0" speed="13.90" length="5.00" shape="308.35,164.75 308.16,163.39 307.58,162.43 306.61,161.84 305.25,161.65"/>
    </edge>
    <edge id=":16_1" function="internal">
        <lane id=":16_1_0" index="0" speed="13.90" length="9.50" shape="308.35,164.75 308.35,155.25"/>
    </edge>
    <edge id=":16_2" function="internal">
        <lane id=":16_2_0" index="0" speed="13.90" length="10.32" shape="308.35,164.75 308.75,161.95 309.95,159.95 311.95,158.75 314.75,158.35"/>
    </edge>
    <edge id=":16_3" function="internal">
        <lane id=":16_3_0" index="0" speed="13.90" length="4.82" shape="308.35,164.75 309.17,163.51 310.00,163.10 310.82,163.51 311.65,164.75"/>
    </edge>
    <edge id=":16_4" function="internal">
        <lane id=":16_4_0" index="0" speed="13.90" length="5.00" shape="314.75,161.65 313.39,161.84 312.42,162.43 311.84,163.39 311.65,164.75"/>
    </edge>
    <edge id=":16_5" function="internal">
        <lane id=":16_5_0" index="0" speed="13.90" length="9.50" shape="314.75,161.65 305.25,161.65"/>
    </edge>
    <edge id=":16_6" function="internal">
        <lane id=":16_6_0" index="0" speed="13.90" length="10.32" shape="314.75,161.65 311.95,161.25 309.95,160.05 308.75,158.05 308.35,155.25"/>
    </edge>
    <edge id=":16_7" function="internal">
        <lane id=":16_7_0" index="0" speed="13.90" length="4.82" shape="314.75,161.65 313.51,160.83 313.10,160.00 313.51,159.18 314.75,158.35"/>
    </edge>
    <edge id=":16_8" function="internal">
        <lane id=":16_8_0" index="0" speed="13.90" length="5.00" shape="311.65,155.25 311.84,156.61 312.42,157.57 313.39,158.16 314.75,158.35"/>
    </edge>
    <edge id=":16_9" function="internal">
        <lane id=":16_9_0" index="0" speed="13.90" length="9.50" shape="311.65,155.25 311.65,164.75"/>
    </edge>
    <edge id=":16_10" function="internal">
        <lane id=":16_10_0" index="0" speed="13.90" length="10.32" shape="311.65,155.25 311.25,158.05 310.05,160.05 308.05,161.25 305.25,161.65"/>
    </edge>
    <edge id=":16_11" function="internal">
        <lane id=":16_11_0" index="0" speed="13.90" length="4.82" shape="311.65,155.25 310.83,156.49 310.00,156.90 309.18,156.49 308.35,155.25"/>
    </edge>
    <edge id=":16_12" function="internal">
        <lane id=":16_12_0" index="0" speed="13.90" length="5.00" shape="305.25,158.35 306.61,158.16 307.58,157.57 308.16,156.61 308.35,155.25"/>
    </edge>
    <edge id=":16_13" function="internal">
        <lane id=":16_13_0" index="0" speed="13.90" length="9.50" shape="305.25,158.35 314.75,158.35"/>
    </edge>
    <edge id=":16_14" function="internal">
        <lane id=":16_14_0" index="0" speed="13.90" length="10.32" shape="305.25,158.35 308.05,158.75 310.05,159.95 311.25,161.95 311.65,164.75"/>
    </edge>
    <edge id=":16_15" function="internal">
        <lane id=":16_15_0" index="0" speed="13.90" length="4.82" shape="305.25,158.35 306.49,159.17 306.90,160.00 306.49,160.82 305.25,161.65"/>
    </edge>
    <edge id=":17_0" function="internal">
        <lane id=":17_0_0" index="0" speed="13.90" length="5.00" shape="408.35,164.75 408.16,163.39 407.58,162.43 406.61,161.84 405.25,161.65"/>
    </edge>
    <edge id=":17_1" function="internal">
        <lane id=":17_1_0" index="0" speed="13.90" length="9.50" shape="408.35,164.75 408.35,155.25"/>
    </edge>
    <edge id=":17_2" function="internal">
        <lane id=":17_2_0" index="0" speed="13.90" length="10.32" shape="408.35,164.75 408.75,161.95 409.95,159.95 411.95,158.75 414.75,158.35"/>
    </edge>
    <edge id=":17_3" function="internal">
        <lane id=":17_3_0" index="0" speed="13.90" length="4.82" shape="408.35,164.75 409.17,163.51 410.00,163.10 410.82,163.51 411.65,164.75"/>
    </edge>
    <edge id=":17_4" function="internal">
        <lane id=":17_4_0" index="0" speed="13.90" length="5.00" shape="414.75,161.65 413.39,161.84 412.42,162.43 411.84,163.39 411.65,164.75"/>
    </edge>
    <edge id=":17_5" function="internal">
        <lane id=":17_5_0" index="0" speed="13.90" length="9.50" shape="414.75,161.65 405.25,161.65"/>
    </edge>
    <edge id=":17_6" function="internal">
        <lane id=":17_6_0" index="0" speed="13.90" length="10.32" shape="414.75,161.65 411.95,161.25 409.95,160.05 408.75,158.05 408.35,155.25"/>
    </edge>
    <edge id=":17_7" function="internal">
        <lane id=":17_7_0" index="0" speed="13.90" length="4.82" shape="414.75,161.65 413.51,160.83 413.10,160.00 413.51,159.18 414.75,158.35"/>
    </edge>
    <edge id=":17_8" function="internal">
        <lane id=":17_8_0" index="0" speed="13.90" length="5.00" shape="411.65,155.25 411.84,156.61 412.42,157.57 413.39,158.16 414.75,158.35"/>
    </edge>
    <edge id=":17_9" function="internal">
        <lane id=":17_9_0" index="0" speed="13.90" length="9.50" shape="411.65,155.25 411.65,164.75"/>
    </edge>
    <edge id=":17_10" function="internal">
        <lane id=":17_10_0" index="0" speed="13.90" length="10.32" shape="411.65,155.25 411.25,158.05 410.05,160.05 408.05,161.25 405.25,161.65"/>
    </edge>
    <edge id=":17_11" function="internal">
        <lane id=":17_11_0" index="0" speed="13.90" length="4.82" shape="411.65,155.25 410.83,156.49 410.00,156.90 409.18,156.49 408.35,155.25"/>
    </edge>
    <edge id=":17_12" function="internal">
        <lane id=":17_12_0" index="0" speed="13.90" length="5.00" shape="405.25,158.35 406.61,158.16 407.58,157.57 408.16,156.61 408.35,155.25"/>
    </edge>
    <edge id=":17_13" function="internal">
        <lane id=":17_13_0" index="0" speed="13.90" length="9.50" shape="405.25,158.35 414.75,158.35"/>
    </edge>
    <edge id=":17_14" function="internal">
        <lane id=":17_14_0" index="0" speed="13.90" length="10.32" shape="405.25,158.35 408.05,158.75 410.05,159.95 411.25,161.95 411.65,164.75"/>
    </edge>
    <edge id=":17_15" function="internal">
        <lane id=":17_15_0" index="0" speed="13.90" length="4.82" shape="405.25,158.35 406.49,159.17 406.90,160.00 406.49,160.82 405.25,161.65"/>
    </edge>
    <edge id=":18_0" function="internal">
        <lane id=":18_0_0" index="0" speed="13.90" length="5.00" shape="508.35,164.75 508.16,163.39 507.58,162.43 506.61,161.84 505.25,161.65"/>
    </edge>
    <edge id=":18_1" function="internal">
        <lane id=":18_1_0" index="0" speed="13.90" length="9.50" shape="508.35,164.75 508.35,155.25"/>
    </edge>
    <edge id=":18_2" function="internal">
        <lane id=":18_2_0" index="0" speed="13.90" length="4.82" shape="508.35,164.75 509.18,163.51 510.00,163.10 510.82,163.51 511.65,164.75"/>
    </edge>
    <edge id=":18_3" function="internal">
        <lane id=":18_3_0" index="0" speed="13.90" length="9.50" shape="511.65,155.25 511.65,164.75"/>
    </edge>
    <edge id=":18_4" function="internal">
        <lane id=":18_4_0" index="0" speed="13.90" length="10.32" shape="511.65,155.25 511.25,158.05 510.05,160.05 508.05,161.25 505.25,161.65"/>
    </edge>
    <edge id=":18_5" function="internal">
        <lane id=":18_5_0" index="0" speed="13.90" length="4.82" shape="511.65,155.25 510.82,156.49 510.00,156.90 509.18,156.49 508.35,155.25"/>
    </edge>
    <edge id=":18_6" function="internal">
        <lane id=":18_6_0" index="0" speed="13.90" length="5.00" shape="505.25,158.35 506.61,158.16 507.58,157.57 508.16,156.61 508.35,155.25"/>
    </edge>
    <edge id=":18_7" function="internal">
        <lane id=":18_7_0" index="0" speed="13.90" length="10.32" shape="505.25,158.35 508.05,158.75 510.05,159.95 511.25,161.95 511.65,164.75"/>
    </edge>
    <edge id=":18_8" function="internal">
        <lane id=":18_8_0" index="0" speed="13.90" length="4.82" shape="505.25,158.35 506.49,159.17 506.90,160.00 506.49,160.82 505.25,161.65"/>
    </edge>
    <edge id=":19_0" function="internal">
        <lane id=":19_0_0" index="0" speed="13.90" length="10.32" shape="14.75,236.65 11.95,236.25 9.95,235.05 8.75,233.05 8.35,230.25"/>
    </edge>
    <edge id=":19_1" function="internal">
        <lane id=":19_1_0" index="0" speed="13.90" length="4.82" shape="14.75,236.65 13.51,235.82 13.10,235.00 13.51,234.18 14.75,233.35"/>
    </edge>
    <edge id=":19_2" function="internal">
        <lane id=":19_2_0" index="0" speed="13.90" length="5.00" shape="11.65,230.25 11.84,231.61 12.43,232.58 13.39,233.16 14.75,233.35"/>
    </edge>
    <edge id=":19_3" function="internal">
        <lane id=":19_3_0" index="0" speed="13.90" length="4.82" shape="11.65,230.25 10.83,231.49 10.00,231.90 9.18,231.49 8.35,230.25"/>
    </edge>
    <edge id=":19_4" function="internal">
        <lane id=":19_4_0" index="0" speed="13.90" length="9.04" shape="4.49,238.18 6.18,236.24 7.38,234.27 8.11,232.27 8.35,230.25"/>
    </edge>
    <edge id=":19_5" function="internal">
        <lane id=":19_5_0" index="0" speed="13.90" length="11.76" shape="4.49,238.18 6.88,235.93 9.07,234.44 11.53,233.61 14.75,233.35"/>
    </edge>
    <edge id=":2_0" function="internal">
        <lane id=":2_0_0" index="0" speed="13.90" length="5.00" shape="108.35,14.75 108.16,13.39 107.57,12.43 106.61,11.84 105.25,11.65"/>
    </edge>
    <edge id=":2_1" function="internal">
        <lane id=":2_1_0" index="0" speed="13.90" length="10.32" shape="108.35,14.75 108.75,11.95 109.95,9.95 111.95,8.75 114.75,8.35"/>
    </edge>
    <edge id=":2_2" function="internal">
        <lane id=":2_2_0" index="0" speed="13.90" length="4.82" shape="108.35,14.75 109.18,13.51 110.00,13.10 110.83,13.51 111.65,14.75"/>
    </edge>
    <edge id=":2_3" function="internal">
        <lane id=":2_3_0" index="0" speed="13.90" length="5.00" shape="114.75,11.65 113.39,11.84 112.43,12.43 111.84,13.39 111.65,14.75"/>
    </edge>
    <edge id=":2_4" function="internal">
        <lane id=":2_4_0" index="0" speed="13.90" length="9.50" shape="114.75,11.65 105.25,11.65"/>
    </edge>
    <edge id=":2_5" function="internal">
        <lane id=":2_5_0" index="0" speed="13.90" length="4.82" shape="114.75,11.65 113.51,10.83 113.10,10.00 113.51,9.18 114.75,8.35"/>
    </edge>
    <edge id=":2_6" function="internal">
        <lane id=":2_6_0" index="0" speed="13.90" length="9.50" shape="105.25,8.35 114.75,8.35"/>
    </edge>
    <edge id=":2_7" function="internal">
        <lane id=":2_7_0" index="0" speed="13.90" length="10.32" shape="105.25,8.35 108.05,8.75 110.05,9.95 111.25,11.95 111.65,14.75"/>
    </edge>
    <edge id=":2_8" function="internal">
        <lane id=":2_8_0" index="0" speed="13.90" length="4.82" shape="105.25,8.35 106.49,9.17 106.90,10.00 106.49,10.82 105.25,11.65"/>
    </edge>
    <edge id=":20_0" function="internal">
        <lane id=":20_0_0" index="0" speed="13.90" length="9.50" shape="114.75,236.65 105.25,236.65"/>
    </edge>
    <edge id=":20_1" function="internal">
        <lane id=":20_1_0" index="0" speed="13.90" length="10.32" shape="114.75,236.65 111.95,236.25 109.95,235.05 108.75,233.05 108.35,230.25"/>
    </edge>
    <edge id=":20_2" function="internal">
        <lane id=":20_2_0" index="0" speed="13.90" length="4.82" shape="114.75,236.65 113.51,235.82 113.10,235.00 113.51,234.18 114.75,233.35"/>
    </edge>
    <edge id=":20_3" function="internal">
        <lane id=":20_3_0" index="0" speed="13.90" length="5.00" shape="111.65,230.25 111.84,231.61 112.43,232.58 113.39,233.16 114.75,233.35"/>
    </edge>
    <edge id=":20_4" function="internal">
        <lane id=":20_4_0" index="0" speed="13.90" length="10.32" shape="111.65,230.25 111.25,233.05 110.05,235.05 108.05,236.25 105.25,236.65"/>
    </edge>
    <edge id=":20_5" function="internal">
        <lane id=":20_5_0" index="0" speed="13.90" length="4.82" shape="111.65,230.25 110.82,231.49 110.00,231.90 109.17,231.49 108.35,230.25"/>
    </edge>
    <edge id=":20_6" function="internal">
        <lane id=":20_6_0" index="0" speed="13.90" length="5.00" shape="105.25,233.35 106.61,233.16 107.57,232.57 108.16,231.61 108.35,230.25"/>
    </edge>
    <edge id=":20_7" function="internal">
        <lane id=":20_7_0" index="0" speed="13.90" length="9.50" shape="105.25,233.35 114.75,233.35"/>
    </edge>
    <edge id=":20_8" function="internal">
        <lane id=":20_8_0" index="0" speed="13.90" length="4.82" shape="105.25,233.35 106.49,234.18 106.90,235.00 106.49,235.82 105.25,236.65"/>
    </edge>
    <edge id=":21_0" function="internal">
        <lane id=":21_0_0" index="0" speed="13.90" length="9.50" shape="214.75,236.65 205.25,236.65"/>
    </edge>
    <edge id=":21_1" function="internal">
        <lane id=":21_1_0" index="0" speed="13.90" length="10.32" shape="214.75,236.65 211.95,236.25 209.95,235.05 208.75,233.05 208.35,230.25"/>
    </edge>
    <edge id=":21_2" function="internal">