<vehicles>
    <vType accel="1.0" decel="5.0" id="Car" length="4.0" maxSpeed="100.0" sigma="0.0"/>
    <trip id="veh0" depart="0" from="entry24to24" to="16to22" type="Car" color="0,1,0"/>
    <trip id="veh1" depart="0" from="entry19to19" to="4to3" type="Car" color="0,1,0"/>
    <trip id="veh2" depart="0" from="entry6to6" to="13to14" type="Car" color="0,1,0"/>
    <trip id="veh3" depart="0" from="entry19to19" to="1to2" type="Car" color="0,1,0"/>
    <trip id="veh4" depart="0" from="entry24to24" to="11to17" type="Car" color="0,1,0"/>
</vehicles>