<vehicles>
    <vType accel="1.0" decel="5.0" id="Car" length="4.0" maxSpeed="100.0" sigma="0.0"/>
    <trip id="veh0" depart="0" from="entry1to1" to="8to14" type="Car" color="0,1,0"/>
    <trip id="veh1" depart="0" from="entry6to6" to="19to20" type="Car" color="0,1,0"/>
    <trip id="veh2" depart="0" from="entry1to1" to="20to14" type="Car" color="0,1,0"/>
    <trip id="veh3" depart="0" from="entry1to1" to="14to8" type="Car" color="0,1,0"/>
    <trip id="veh4" depart="0" from="entry19to19" to="15to21" type="Car" color="0,1,0"/>
</vehicles>