<nodes>
    <node id="1" x="0.0" y="0.0"        type="right_before_left"  />
    <node id="2" x="100.0" y="0.0"      type="right_before_left"  />
    <node id="3" x="200.0" y="0.0"      type="right_before_left"  />
	<node id="4" x="300.0" y="0.0"      type="right_before_left"  />
	<node id="5" x="400.0" y="0.0"      type="right_before_left"  />
	<node id="6" x="500.0" y="0.0"      type="right_before_left"  />
	<node id="7" x="0.0" y="75.0"       type="right_before_left"  />
	<node id="8" x="100.0" y="75.0"     type="right_before_left"  />
    <node id="9" x="200.0" y="75.0"     type="right_before_left"  />
    <node id="10" x="300.0" y="75.0"    type="right_before_left"  />
	<node id="11" x="400.0" y="75.0"    type="right_before_left"  />
	<node id="12" x="500.0" y="75.0"    type="right_before_left"  />
	<node id="13" x="0.0" y="150.0"     type="right_before_left"  />
	<node id="14" x="100.0" y="150.0"   type="right_before_left"  />
	<node id="15" x="200.0" y="150.0"   type="right_before_left"  />
    <node id="16" x="300.0" y="150.0"   type="right_before_left"  />
    <node id="17" x="400.0" y="150.0"   type="right_before_left"  />
	<node id="18" x="500.0" y="150.0"   type="right_before_left"  />
	<node id="19" x="0.0" y="225.0"     type="right_before_left"  />
	<node id="20" x="100.0" y="225.0"   type="right_before_left"  />
	<node id="21" x="200.0" y="225.0"   type="right_before_left"  />
	<node id="22" x="300.0" y="225.0"   type="right_before_left"  />
	<node id="23" x="400.0" y="225.0"   type="right_before_left"  />
	<node id="24" x="500.0" y="225.0"   type="right_before_left"  />
	<node id="entrypoint1" x="-10.0" y="-10.0" />
	<node id="entrypoint6" x="510.0" y="-10.0" />
	<node id="entrypoint19" x="-10.0" y="235.0" />
	<node id="entrypoint24" x="510.0" y="235.0" />
</nodes>