<?xml version="1.0" encoding="UTF-8"?>

<!-- generated on Fr  7 Okt 15:40:15 2016 by Netedit Version 0.27.1
<?xml version="1.0" encoding="UTF-8"?>

<configuration xmlns:xsi="http://www.w3.org/2001/XMLSchema-instance" xsi:noNamespaceSchemaLocation="http://sumo.dlr.de/xsd/netedit.exeConfiguration.xsd">

    <input>
        <sumo-net-file value="reroute.net.xml"/>
    </input>

    <output>
        <output-file value="reroute.net.xml"/>
    </output>

    <processing>
        <no-turnarounds value="true"/>
        <offset.disable-normalization value="true"/>
        <lefthand value="false"/>
        <junctions.corner-detail value="0"/>
    </processing>

</configuration>
-->

<net version="0.27" xmlns:xsi="http://www.w3.org/2001/XMLSchema-instance" xsi:noNamespaceSchemaLocation="http://sumo.dlr.de/xsd/net_file.xsd">

    <location netOffset="-551006.83,-5800835.03" convBoundary="-15.13,-8.28,969.50,1000.20" origBoundary="9.749054,52.355394,9.763128,52.364246" projParameter="+proj=utm +zone=32 +ellps=WGS84 +datum=WGS84 +units=m +no_defs"/>

    <edge id=":1_0" function="internal">
        <lane id=":1_0_0" index="0" speed="13.89" length="6.81" shape="397.10,12.17 395.79,12.14 394.49,12.74 393.19,13.98 391.90,15.85"/>
    </edge>
    <edge id=":1_1" function="internal">
        <lane id=":1_1_0" index="0" speed="13.89" length="10.09" shape="397.10,12.17 387.19,10.27"/>
    </edge>
    <edge id=":1_2" function="internal">
        <lane id=":1_2_0" index="0" speed="13.89" length="2.41" shape="397.10,12.17 396.12,11.06 395.93,10.15"/>
    </edge>
    <edge id=":1_9" function="internal">
        <lane id=":1_9_0" index="0" speed="13.89" length="2.41" shape="395.93,10.15 396.54,9.46 397.95,8.98"/>
    </edge>
    <edge id=":1_3" function="internal">
        <lane id=":1_3_0" index="0" speed="13.89" length="10.47" shape="387.66,7.01 397.95,8.98"/>
    </edge>
    <edge id=":1_4" function="internal">
        <lane id=":1_4_0" index="0" speed="13.89" length="6.13" shape="387.66,7.01 391.19,8.04 392.96,9.75"/>
    </edge>
    <edge id=":1_5" function="internal">
        <lane id=":1_5_0" index="0" speed="13.89" length="2.54" shape="387.66,7.01 388.77,8.00 389.06,8.88 388.98,8.99"/>
    </edge>
    <edge id=":1_10" function="internal">
        <lane id=":1_10_0" index="0" speed="13.89" length="6.44" shape="392.96,9.75 393.07,9.86 393.31,12.46 391.90,15.85"/>
    </edge>
    <edge id=":1_11" function="internal">
        <lane id=":1_11_0" index="0" speed="13.89" length="2.28" shape="388.98,8.99 388.53,9.64 387.19,10.27"/>
    </edge>
    <edge id=":1_6" function="internal">
        <lane id=":1_6_0" index="0" speed="13.89" length="5.55" shape="389.06,14.18 389.68,12.68 389.57,11.53 388.74,10.73 387.19,10.27"/>
    </edge>
    <edge id=":1_7" function="internal">
        <lane id=":1_7_0" index="0" speed="13.89" length="11.10" shape="389.06,14.18 391.05,11.40 393.20,9.61 395.50,8.80 397.95,8.98"/>
    </edge>
    <edge id=":1_8" function="internal">
        <lane id=":1_8_0" index="0" speed="13.89" length="4.82" shape="389.06,14.18 390.39,13.53 391.32,13.59 391.82,14.37 391.90,15.85"/>
    </edge>
    <edge id=":105_0" function="internal">
        <lane id=":105_0_0" index="0" speed="13.89" length="9.67" shape="700.87,687.76 696.57,696.42"/>
    </edge>
    <edge id=":105_1" function="internal">
        <lane id=":105_1_0" index="0" speed="13.89" length="5.41" shape="700.87,687.76 699.28,690.16 697.31,691.45 697.13,691.46"/>
    </edge>
    <edge id=":105_2" function="internal">
        <lane id=":105_2_0" index="0" speed="13.89" length="2.41" shape="700.87,687.76 699.60,688.53 698.67,688.55"/>
    </edge>
    <edge id=":105_9" function="internal">
        <lane id=":105_9_0" index="0" speed="13.89" length="5.06" shape="697.13,691.46 694.96,691.63 692.24,690.69"/>
    </edge>
    <edge id=":105_10" function="internal">
        <lane id=":105_10_0" index="0" speed="13.89" length="2.41" shape="698.67,688.55 698.11,687.82 697.89,686.35"/>
    </edge>
    <edge id=":105_3" function="internal">
        <lane id=":105_3_0" index="0" speed="13.89" length="5.03" shape="693.74,687.75 695.05,688.20 696.18,688.12 697.13,687.50 697.89,686.35"/>
    </edge>
    <edge id=":105_4" function="internal">
        <lane id=":105_4_0" index="0" speed="13.89" length="10.41" shape="693.74,687.75 696.09,689.41 697.34,691.40 697.50,693.74 696.57,696.42"/>
    </edge>
    <edge id=":105_5" function="internal">
        <lane id=":105_5_0" index="0" speed="13.89" length="4.82" shape="693.74,687.75 694.46,689.05 694.46,689.97 693.71,690.52 692.24,690.69"/>
    </edge>
    <edge id=":105_6" function="internal">
        <lane id=":105_6_0" index="0" speed="13.89" length="5.07" shape="693.64,694.90 694.09,693.60 694.00,692.47 693.39,691.50 692.24,690.69"/>
    </edge>
    <edge id=":105_7" function="internal">
        <lane id=":105_7_0" index="0" speed="13.89" length="9.56" shape="693.64,694.90 697.89,686.35"/>
    </edge>
    <edge id=":105_8" function="internal">
        <lane id=":105_8_0" index="0" speed="13.89" length="2.41" shape="693.64,694.90 694.94,694.18 695.86,694.20"/>
    </edge>
    <edge id=":105_11" function="internal">
        <lane id=":105_11_0" index="0" speed="13.89" length="2.41" shape="695.86,694.20 696.40,694.94 696.57,696.42"/>
    </edge>
    <edge id=":106_0" function="internal">
        <lane id=":106_0_0" index="0" speed="13.89" length="5.02" shape="156.02,430.04 154.71,429.61 153.58,429.72 152.64,430.35 151.89,431.50"/>
    </edge>
    <edge id=":106_1" function="internal">
        <lane id=":106_1_0" index="0" speed="13.89" length="13.13" shape="156.02,430.04 152.36,427.80 150.13,425.39 149.35,422.80 150.01,420.03"/>
    </edge>
    <edge id=":106_2" function="internal">
        <lane id=":106_2_0" index="0" speed="13.89" length="4.82" shape="156.02,430.04 155.27,428.75 155.26,427.83 155.99,427.27 157.47,427.07"/>
    </edge>
    <edge id=":106_3" function="internal">
        <lane id=":106_3_0" index="0" speed="13.89" length="5.06" shape="155.95,422.89 155.54,424.20 155.66,425.33 156.30,426.29 157.47,427.07"/>
    </edge>
    <edge id=":106_4" function="internal">
        <lane id=":106_4_0" index="0" speed="13.89" length="9.55" shape="155.95,422.89 151.89,431.50"/>
        <lane id=":106_4_1" index="1" speed="13.89" length="9.55" shape="152.98,421.46 148.89,430.12"/>
    </edge>
    <edge id=":106_6" function="internal">
        <lane id=":106_6_0" index="0" speed="13.89" length="2.69" shape="152.98,421.46 150.42,422.98"/>
        <lane id=":106_6_1" index="1" speed="13.89" length="2.69" shape="152.98,421.46 151.70,422.22 150.78,422.23"/>
    </edge>
    <edge id=":106_13" function="internal">
        <lane id=":106_13_0" index="0" speed="13.89" length="6.66" shape="150.42,422.98 148.57,423.00 147.45,421.55 147.03,418.60"/>
    </edge>
    <edge id=":106_14" function="internal">
        <lane id=":106_14_0" index="0" speed="13.89" length="2.41" shape="150.78,422.23 150.21,421.50 150.01,420.03"/>
    </edge>
    <edge id=":106_8" function="internal">
        <lane id=":106_8_0" index="0" speed="13.89" length="9.64" shape="142.90,427.34 147.03,418.60"/>
        <lane id=":106_8_1" index="1" speed="13.89" length="9.64" shape="145.90,428.73 150.01,420.03"/>
    </edge>
    <edge id=":106_10" function="internal">
        <lane id=":106_10_0" index="0" speed="13.89" length="4.58" shape="145.90,428.73 147.66,426.39 149.19,425.75"/>
    </edge>
    <edge id=":106_11" function="internal">
        <lane id=":106_11_0" index="0" speed="13.89" length="2.69" shape="145.90,428.73 148.44,427.18"/>
        <lane id=":106_11_1" index="1" speed="13.89" length="2.69" shape="145.90,428.73 147.17,427.95 148.09,427.93"/>
    </edge>
    <edge id=":106_15" function="internal">
        <lane id=":106_15_0" index="0" speed="13.89" length="8.65" shape="149.19,425.75 150.17,425.33 153.44,425.56 157.47,427.07"/>
    </edge>
    <edge id=":106_16" function="internal">
        <lane id=":106_16_0" index="0" speed="13.89" length="6.66" shape="148.44,427.18 150.28,427.12 151.43,428.57 151.89,431.50"/>
    </edge>
    <edge id=":106_17" function="internal">
        <lane id=":106_17_0" index="0" speed="13.89" length="2.41" shape="148.09,427.93 148.66,428.65 148.89,430.12"/>
    </edge>
    <edge id=":117_0" function="internal">
        <lane id=":117_0_0" index="0" speed="13.89" length="5.02" shape="571.39,631.84 570.09,631.44 568.96,631.55 568.01,632.18 567.23,633.32"/>
    </edge>
    <edge id=":117_1" function="internal">
        <lane id=":117_1_0" index="0" speed="13.89" length="9.47" shape="571.39,631.84 562.87,627.71"/>
    </edge>
    <edge id=":117_2" function="internal">
        <lane id=":117_2_0" index="0" speed="13.89" length="4.82" shape="571.39,631.84 570.62,630.56 570.60,629.64 571.33,629.07 572.80,628.85"/>
    </edge>
    <edge id=":117_3" function="internal">
        <lane id=":117_3_0" index="0" speed="13.89" length="9.40" shape="564.34,624.75 572.80,628.85"/>
    </edge>
    <edge id=":117_4" function="internal">
        <lane id=":117_4_0" index="0" speed="13.89" length="10.31" shape="564.34,624.75 566.66,626.35 567.92,628.32 568.11,630.64 567.23,633.32"/>
    </edge>
    <edge id=":117_5" function="internal">
        <lane id=":117_5_0" index="0" speed="13.89" length="4.82" shape="564.34,624.75 565.08,626.04 565.08,626.96 564.34,627.52 562.87,627.71"/>
    </edge>
    <edge id=":117_6" function="internal">
        <lane id=":117_6_0" index="0" speed="13.89" length="5.00" shape="564.27,631.86 564.70,630.56 564.61,629.43 564.00,628.48 562.87,627.71"/>
    </edge>
    <edge id=":117_7" function="internal">
        <lane id=":117_7_0" index="0" speed="13.89" length="10.27" shape="564.27,631.86 565.86,629.53 567.81,628.26 570.12,628.03 572.80,628.85"/>
    </edge>
    <edge id=":117_8" function="internal">
        <lane id=":117_8_0" index="0" speed="13.89" length="4.82" shape="564.27,631.86 565.56,631.12 566.48,631.11 567.04,631.85 567.23,633.32"/>
    </edge>
    <edge id=":12_0" function="internal">
        <lane id=":12_0_0" index="0" speed="13.89" length="5.17" shape="477.88,33.61 476.44,33.43 475.36,33.78 474.62,34.65 474.23,36.04"/>
    </edge>
    <edge id=":12_1" function="internal">
        <lane id=":12_1_0" index="0" speed="13.89" length="9.57" shape="477.88,33.61 468.64,31.12"/>
    </edge>
    <edge id=":12_2" function="internal">
        <lane id=":12_2_0" index="0" speed="13.89" length="2.41" shape="477.88,33.61 476.90,32.49 476.72,31.58"/>
    </edge>
    <edge id=":12_9" function="internal">
        <lane id=":12_9_0" index="0" speed="13.89" length="2.41" shape="476.72,31.58 477.34,30.90 478.75,30.43"/>
    </edge>
    <edge id=":12_3" function="internal">
        <lane id=":12_3_0" index="0" speed="13.89" length="9.60" shape="469.48,27.93 478.75,30.43"/>
    </edge>
    <edge id=":12_4" function="internal">
        <lane id=":12_4_0" index="0" speed="13.89" length="4.96" shape="469.48,27.93 471.88,28.99 473.47,30.70"/>
    </edge>
    <edge id=":12_5" function="internal">
        <lane id=":12_5_0" index="0" speed="13.89" length="2.41" shape="469.48,27.93 470.47,29.04 470.65,29.95"/>
    </edge>
    <edge id=":12_10" function="internal">
        <lane id=":12_10_0" index="0" speed="13.89" length="5.46" shape="473.47,30.70 474.26,33.05 474.23,36.04"/>
    </edge>
    <edge id=":12_11" function="internal">
        <lane id=":12_11_0" index="0" speed="13.89" length="2.41" shape="470.65,29.95 470.04,30.64 468.64,31.12"/>
    </edge>
    <edge id=":12_6" function="internal">
        <lane id=":12_6_0" index="0" speed="13.89" length="5.59" shape="470.96,35.61 471.00,33.92 470.62,32.61 469.84,31.68 468.64,31.12"/>
    </edge>
    <edge id=":12_7" function="internal">
        <lane id=":12_7_0" index="0" speed="13.89" length="11.04" shape="470.96,35.61 471.79,32.64 473.37,30.78 475.69,30.05 478.75,30.43"/>
    </edge>
    <edge id=":12_8" function="internal">
        <lane id=":12_8_0" index="0" speed="13.89" length="4.82" shape="470.96,35.61 471.94,34.49 472.81,34.19 473.57,34.70 474.23,36.04"/>
    </edge>
    <edge id=":126_0" function="internal">
        <lane id=":126_0_0" index="0" speed="13.89" length="13.22" shape="6.48,728.98 2.86,726.67 0.71,724.20 0.03,721.56 0.83,718.75"/>
    </edge>
    <edge id=":126_1" function="internal">
        <lane id=":126_1_0" index="0" speed="13.89" length="4.82" shape="6.48,728.98 5.76,727.68 5.76,726.76 6.50,726.21 7.98,726.03"/>
    </edge>
    <edge id=":126_2" function="internal">
        <lane id=":126_2_0" index="0" speed="13.89" length="5.02" shape="6.66,721.85 6.19,723.15 6.25,724.28 6.85,725.24 7.98,726.03"/>
    </edge>
    <edge id=":126_3" function="internal">
        <lane id=":126_3_0" index="0" speed="13.89" length="7.23" shape="3.75,720.30 1.13,721.71 -0.72,721.67 -1.79,720.16 -2.08,717.20"/>
        <lane id=":126_3_1" index="1" speed="13.89" length="7.23" shape="3.75,720.30 2.44,721.01 1.51,720.98 0.98,720.23 0.83,718.75"/>
    </edge>
    <edge id=":126_5" function="internal">
        <lane id=":126_5_0" index="0" speed="13.89" length="6.51" shape="-6.33,718.59 -5.04,719.05 -3.90,718.97 -2.91,718.35 -2.08,717.20"/>
        <lane id=":126_5_1" index="1" speed="13.89" length="6.51" shape="-6.33,718.59 -3.76,719.73 -1.71,720.13 -0.18,719.81 0.83,718.75"/>
    </edge>
    <edge id=":126_7" function="internal">
        <lane id=":126_7_0" index="0" speed="13.89" length="16.13" shape="-6.33,718.59 7.98,726.03"/>
    </edge>
    <edge id=":13_0" function="internal">
        <lane id=":13_0_0" index="0" speed="13.89" length="5.29" shape="466.86,118.72 465.40,118.40 464.29,118.66 463.52,119.52 463.11,120.96"/>
    </edge>
    <edge id=":13_1" function="internal">
        <lane id=":13_1_0" index="0" speed="13.89" length="11.17" shape="466.86,118.72 456.41,114.79"/>
    </edge>
    <edge id=":13_2" function="internal">
        <lane id=":13_2_0" index="0" speed="13.89" length="11.79" shape="466.86,118.72 464.10,117.23 462.26,115.20 461.33,112.60 461.32,109.45"/>
    </edge>
    <edge id=":13_3" function="internal">
        <lane id=":13_3_0" index="0" speed="13.89" length="4.82" shape="466.86,118.72 466.00,117.51 465.90,116.59 466.57,115.96 468.02,115.63"/>
    </edge>
    <edge id=":13_4" function="internal">
        <lane id=":13_4_0" index="0" speed="13.89" length="7.31" shape="464.59,109.88 464.60,111.83 465.17,113.44 466.31,114.71 468.02,115.63"/>
    </edge>
    <edge id=":13_5" function="internal">
        <lane id=":13_5_0" index="0" speed="13.89" length="11.18" shape="464.59,109.88 463.11,120.96"/>
    </edge>
    <edge id=":13_6" function="internal">
        <lane id=":13_6_0" index="0" speed="13.89" length="11.57" shape="464.59,109.88 463.71,113.04 462.05,114.92 459.61,115.50 456.41,114.79"/>
    </edge>
    <edge id=":13_7" function="internal">
        <lane id=":13_7_0" index="0" speed="13.89" length="4.82" shape="464.59,109.88 463.61,111.00 462.74,111.30 461.98,110.79 461.32,109.45"/>
    </edge>
    <edge id=":13_8" function="internal">
        <lane id=":13_8_0" index="0" speed="13.89" length="5.30" shape="457.57,111.70 459.04,112.03 460.15,111.76 460.91,110.90 461.32,109.45"/>
    </edge>
    <edge id=":13_9" function="internal">
        <lane id=":13_9_0" index="0" speed="13.89" length="11.16" shape="457.57,111.70 468.02,115.63"/>
    </edge>
    <edge id=":13_10" function="internal">
        <lane id=":13_10_0" index="0" speed="13.89" length="11.79" shape="457.57,111.70 460.34,113.19 462.19,115.23 463.11,117.82 463.11,120.96"/>
    </edge>
    <edge id=":13_11" function="internal">
        <lane id=":13_11_0" index="0" speed="13.89" length="4.82" shape="457.57,111.70 458.44,112.91 458.53,113.83 457.86,114.45 456.41,114.79"/>
    </edge>
    <edge id=":13_12" function="internal">
        <lane id=":13_12_0" index="0" speed="13.89" length="7.29" shape="459.84,120.51 459.84,118.57 459.27,116.98 458.13,115.71 456.41,114.79"/>
    </edge>
    <edge id=":13_13" function="internal">
        <lane id=":13_13_0" index="0" speed="13.89" length="11.16" shape="459.84,120.51 461.32,109.45"/>
    </edge>
    <edge id=":13_14" function="internal">
        <lane id=":13_14_0" index="0" speed="13.89" length="11.52" shape="459.84,120.51 460.74,117.37 462.40,115.51 464.83,114.93 468.02,115.63"/>
    </edge>
    <edge id=":13_15" function="internal">
        <lane id=":13_15_0" index="0" speed="13.89" length="4.82" shape="459.84,120.51 460.83,119.40 461.70,119.10 462.46,119.62 463.11,120.96"/>
    </edge>
    <edge id=":140_0" function="internal">
        <lane id=":140_0_0" index="0" speed="13.89" length="5.36" shape="504.20,767.46 502.91,767.02 501.73,767.14 500.67,767.82 499.73,769.06"/>
    </edge>
    <edge id=":140_1" function="internal">
        <lane id=":140_1_0" index="0" speed="13.89" length="9.64" shape="504.20,767.46 495.54,763.21"/>
    </edge>
    <edge id=":140_2" function="internal">
        <lane id=":140_2_0" index="0" speed="13.89" length="10.16" shape="504.20,767.46 501.96,765.82 500.76,763.85 500.59,761.55 501.46,758.91"/>
    </edge>
    <edge id=":140_3" function="internal">
        <lane id=":140_3_0" index="0" speed="13.89" length="4.82" shape="504.20,767.46 503.50,766.15 503.52,765.22 504.28,764.69 505.76,764.55"/>
    </edge>
    <edge id=":140_4" function="internal">
        <lane id=":140_4_0" index="0" speed="13.89" length="4.96" shape="504.42,760.38 504.00,761.66 504.08,762.79 504.66,763.75 505.76,764.55"/>
    </edge>
    <edge id=":140_5" function="internal">
        <lane id=":140_5_0" index="0" speed="13.89" length="9.87" shape="504.42,760.38 499.73,769.06"/>
    </edge>
    <edge id=":140_6" function="internal">
        <lane id=":140_6_0" index="0" speed="13.89" length="10.54" shape="504.42,760.38 502.83,762.65 500.82,763.88 498.39,764.07 495.54,763.21"/>
    </edge>
    <edge id=":140_7" function="internal">
        <lane id=":140_7_0" index="0" speed="13.89" length="4.82" shape="504.42,760.38 503.13,761.12 502.21,761.12 501.65,760.39 501.46,758.91"/>
    </edge>
    <edge id=":140_8" function="internal">
        <lane id=":140_8_0" index="0" speed="13.89" length="5.36" shape="496.90,760.21 498.39,760.67 499.64,760.61 500.67,760.02 501.46,758.91"/>
    </edge>
    <edge id=":140_9" function="internal">
        <lane id=":140_9_0" index="0" speed="13.89" length="9.86" shape="496.90,760.21 505.76,764.55"/>
    </edge>
    <edge id=":140_10" function="internal">
        <lane id=":140_10_0" index="0" speed="13.89" length="10.87" shape="496.90,760.21 499.45,761.83 500.77,763.84 500.86,766.25 499.73,769.06"/>
    </edge>
    <edge id=":140_11" function="internal">
        <lane id=":140_11_0" index="0" speed="13.89" length="4.82" shape="496.90,760.21 497.69,761.47 497.73,762.39 497.01,762.97 495.54,763.21"/>
    </edge>
    <edge id=":140_12" function="internal">
        <lane id=":140_12_0" index="0" speed="13.89" length="5.13" shape="496.88,767.39 497.41,766.07 497.37,764.93 496.75,763.98 495.54,763.21"/>
    </edge>
    <edge id=":140_13" function="internal">
        <lane id=":140_13_0" index="0" speed="13.89" length="9.64" shape="496.88,767.39 501.46,758.91"/>
    </edge>
    <edge id=":140_14" function="internal">
        <lane id=":140_14_0" index="0" speed="13.89" length="10.54" shape="496.88,767.39 498.70,765.04 500.79,763.79 503.14,763.62 505.76,764.55"/>
    </edge>
    <edge id=":140_15" function="internal">
        <lane id=":140_15_0" index="0" speed="13.89" length="4.82" shape="496.88,767.39 498.21,766.74 499.14,766.80 499.64,767.57 499.73,769.06"/>
    </edge>
    <edge id=":15_0" function="internal">
        <lane id=":15_0_0" index="0" speed="13.89" length="5.27" shape="450.84,234.43 449.40,234.05 448.28,234.25 447.46,235.06 446.96,236.46"/>
    </edge>
    <edge id=":15_1" function="internal">
        <lane id=":15_1_0" index="0" speed="13.89" length="10.36" shape="450.84,234.43 448.17,232.94 446.36,231.13 445.42,229.02 445.34,226.58"/>
    </edge>
    <edge id=":15_2" function="internal">
        <lane id=":15_2_0" index="0" speed="13.89" length="4.82" shape="450.84,234.43 450.03,233.19 449.98,232.27 450.68,231.67 452.14,231.40"/>
    </edge>
    <edge id=":15_3" function="internal">
        <lane id=":15_3_0" index="0" speed="13.89" length="6.05" shape="448.61,227.03 448.70,228.31 449.31,229.47 450.46,230.50 452.14,231.40"/>
    </edge>
    <edge id=":15_4" function="internal">
        <lane id=":15_4_0" index="0" speed="13.89" length="9.57" shape="448.61,227.03 446.96,236.46"/>
    </edge>
    <edge id=":15_5" function="internal">
        <lane id=":15_5_0" index="0" speed="13.89" length="4.82" shape="448.61,227.03 447.63,228.15 446.75,228.44 445.99,227.92 445.34,226.58"/>
    </edge>
    <edge id=":15_6" function="internal">
        <lane id=":15_6_0" index="0" speed="13.89" length="9.36" shape="443.73,235.80 445.34,226.58"/>
    </edge>
    <edge id=":15_7" function="internal">
        <lane id=":15_7_0" index="0" speed="13.89" length="11.43" shape="443.73,235.80 444.82,232.76 446.58,231.01 449.02,230.56 452.14,231.40"/>
    </edge>
    <edge id=":15_8" function="internal">
        <lane id=":15_8_0" index="0" speed="13.89" length="4.82" shape="443.73,235.80 444.78,234.75 445.67,234.51 446.40,235.08 446.96,236.46"/>
    </edge>
    <edge id=":171_0" function="internal">
        <lane id=":171_0_0" index="0" speed="13.89" length="5.35" shape="442.71,355.96 441.26,355.50 440.12,355.67 439.31,356.48 438.82,357.93"/>
    </edge>
    <edge id=":171_1" function="internal">
        <lane id=":171_1_0" index="0" speed="13.89" length="9.76" shape="442.71,355.96 433.89,351.79"/>
    </edge>
    <edge id=":171_2" function="internal">
        <lane id=":171_2_0" index="0" speed="13.89" length="4.82" shape="442.71,355.96 441.96,354.68 441.95,353.76 442.68,353.20 444.15,352.99"/>
    </edge>
    <edge id=":171_3" function="internal">
        <lane id=":171_3_0" index="0" speed="13.89" length="9.83" shape="435.26,348.79 444.15,352.99"/>
    </edge>
    <edge id=":171_4" function="internal">
        <lane id=":171_4_0" index="0" speed="13.89" length="10.65" shape="435.26,348.79 437.30,350.19 438.57,352.18 439.08,354.76 438.82,357.93"/>
    </edge>
    <edge id=":171_5" function="internal">
        <lane id=":171_5_0" index="0" speed="13.89" length="4.82" shape="435.26,348.79 436.04,350.06 436.07,350.98 435.36,351.56 433.89,351.79"/>
    </edge>
    <edge id=":171_6" function="internal">
        <lane id=":171_6_0" index="0" speed="13.89" length="6.24" shape="435.57,357.33 435.77,355.33 435.56,353.75 434.93,352.57 433.89,351.79"/>
    </edge>
    <edge id=":171_7" function="internal">
        <lane id=":171_7_0" index="0" speed="13.89" length="11.79" shape="435.57,357.33 436.65,354.14 438.44,352.35 440.94,351.97 444.15,352.99"/>
    </edge>
    <edge id=":171_8" function="internal">
        <lane id=":171_8_0" index="0" speed="13.89" length="4.82" shape="435.57,357.33 436.61,356.26 437.50,356.01 438.23,356.56 438.82,357.93"/>
    </edge>
    <edge id=":19_0" function="internal">
        <lane id=":19_0_0" index="0" speed="13.89" length="7.69" shape="617.59,308.43 617.19,307.19 616.12,305.98 614.38,304.80 611.97,303.66"/>
    </edge>
    <edge id=":19_1" function="internal">
        <lane id=":19_1_0" index="0" speed="13.89" length="10.44" shape="617.59,308.43 616.64,298.03"/>
    </edge>
    <edge id=":19_2" function="internal">
        <lane id=":19_2_0" index="0" speed="13.89" length="4.82" shape="617.59,308.43 618.35,307.15 619.16,306.70 620.00,307.07 620.88,308.27"/>
    </edge>
    <edge id=":19_3" function="internal">
        <lane id=":19_3_0" index="0" speed="13.89" length="10.65" shape="619.92,297.66 620.88,308.27"/>
    </edge>
    <edge id=":19_4" function="internal">
        <lane id=":19_4_0" index="0" speed="13.89" length="13.44" shape="619.92,297.66 619.83,301.68 618.48,304.02 615.86,304.68 611.97,303.66"/>
    </edge>
    <edge id=":19_5" function="internal">
        <lane id=":19_5_0" index="0" speed="13.89" length="4.82" shape="619.92,297.66 619.24,298.98 618.47,299.48 617.60,299.17 616.64,298.03"/>
    </edge>
    <edge id=":19_6" function="internal">
        <lane id=":19_6_0" index="0" speed="13.89" length="5.78" shape="613.22,300.61 614.89,301.05 616.02,300.76 616.60,299.76 616.64,298.03"/>
    </edge>
    <edge id=":19_7" function="internal">
        <lane id=":19_7_0" index="0" speed="13.89" length="11.40" shape="613.22,300.61 616.49,302.23 618.86,304.05 620.32,306.06 620.88,308.27"/>
    </edge>
    <edge id=":19_8" function="internal">
        <lane id=":19_8_0" index="0" speed="13.89" length="4.82" shape="613.22,300.61 614.05,301.84 614.12,302.76 613.43,303.37 611.97,303.66"/>
    </edge>
    <edge id=":21_0" function="internal">
        <lane id=":21_0_0" index="0" speed="13.89" length="10.52" shape="602.98,176.06 602.35,173.41 601.12,171.22 599.29,169.48 596.85,168.19"/>
    </edge>
    <edge id=":21_1" function="internal">
        <lane id=":21_1_0" index="0" speed="13.89" length="13.65" shape="602.98,176.06 601.44,162.49"/>
    </edge>
    <edge id=":21_2" function="internal">
        <lane id=":21_2_0" index="0" speed="13.89" length="13.18" shape="602.98,176.06 603.07,172.15 604.40,169.83 606.98,169.09 610.79,169.95"/>
    </edge>
    <edge id=":21_3" function="internal">
        <lane id=":21_3_0" index="0" speed="13.89" length="4.82" shape="602.98,176.06 603.66,174.73 604.43,174.23 605.30,174.55 606.26,175.69"/>
    </edge>
    <edge id=":21_4" function="internal">
        <lane id=":21_4_0" index="0" speed="13.89" length="5.71" shape="609.64,173.04 607.99,172.67 606.87,172.99 606.30,174.00 606.26,175.69"/>
    </edge>
    <edge id=":21_5" function="internal">
        <lane id=":21_5_0" index="0" speed="13.89" length="13.68" shape="609.64,173.04 596.85,168.19"/>
    </edge>
    <edge id=":21_6" function="internal">
        <lane id=":21_6_0" index="0" speed="13.89" length="14.12" shape="609.64,173.04 606.39,171.36 603.94,169.04 602.29,166.09 601.44,162.49"/>
    </edge>
    <edge id=":21_7" function="internal">
        <lane id=":21_7_0" index="0" speed="13.89" length="4.82" shape="609.64,173.04 608.77,171.84 608.67,170.92 609.35,170.29 610.79,169.95"/>
    </edge>
    <edge id=":21_8" function="internal">
        <lane id=":21_8_0" index="0" speed="13.89" length="10.47" shape="604.72,162.11 605.35,164.79 606.57,166.99 608.39,168.71 610.79,169.95"/>
    </edge>
    <edge id=":21_9" function="internal">
        <lane id=":21_9_0" index="0" speed="13.89" length="13.66" shape="604.72,162.11 606.26,175.69"/>
    </edge>
    <edge id=":21_10" function="internal">
        <lane id=":21_10_0" index="0" speed="13.89" length="13.29" shape="604.72,162.11 604.64,166.07 603.30,168.40 600.70,169.11 596.85,168.19"/>
    </edge>
    <edge id=":21_11" function="internal">
        <lane id=":21_11_0" index="0" speed="13.89" length="4.82" shape="604.72,162.11 604.04,163.44 603.27,163.94 602.40,163.62 601.44,162.49"/>
    </edge>
    <edge id=":21_12" function="internal">
        <lane id=":21_12_0" index="0" speed="13.89" length="5.74" shape="598.05,165.11 599.71,165.51 600.83,165.20 601.40,164.20 601.44,162.49"/>
    </edge>
    <edge id=":21_13" function="internal">
        <lane id=":21_13_0" index="0" speed="13.89" length="13.64" shape="598.05,165.11 610.79,169.95"/>
    </edge>
    <edge id=":21_14" function="internal">
        <lane id=":21_14_0" index="0" speed="13.89" length="14.13" shape="598.05,165.11 601.31,166.84 603.77,169.18 605.42,172.13 606.26,175.69"/>
    </edge>
    <edge id=":21_15" function="internal">
        <lane id=":21_15_0" index="0" speed="13.89" length="4.82" shape="598.05,165.11 598.90,166.33 598.99,167.25 598.31,167.87 596.85,168.19"/>
    </edge>
    <edge id=":23_0" function="internal">
        <lane id=":23_0_0" index="0" speed="13.89" length="7.02" shape="590.82,69.52 590.41,67.19 589.75,65.43 588.86,64.24 587.74,63.62"/>
    </edge>
    <edge id=":23_1" function="internal">
        <lane id=":23_1_0" index="0" speed="13.89" length="12.63" shape="590.82,69.52 590.92,65.83 592.20,63.54 594.66,62.66 598.32,63.18"/>
    </edge>
    <edge id=":23_2" function="internal">
        <lane id=":23_2_0" index="0" speed="13.89" length="4.82" shape="590.82,69.52 591.50,68.20 592.28,67.69 593.14,68.01 594.10,69.14"/>
    </edge>
    <edge id=":23_3" function="internal">
        <lane id=":23_3_0" index="0" speed="13.89" length="5.57" shape="597.41,66.35 595.79,66.12 594.71,66.51 594.14,67.52 594.10,69.14"/>
    </edge>
    <edge id=":23_4" function="internal">
        <lane id=":23_4_0" index="0" speed="13.89" length="10.05" shape="597.41,66.35 587.74,63.62"/>
    </edge>
    <edge id=":23_5" function="internal">
        <lane id=":23_5_0" index="0" speed="13.89" length="2.41" shape="597.41,66.35 596.45,65.21 596.28,64.31"/>
    </edge>
    <edge id=":23_9" function="internal">
        <lane id=":23_9_0" index="0" speed="13.89" length="2.41" shape="596.28,64.31 596.90,63.63 598.32,63.18"/>
    </edge>
    <edge id=":23_6" function="internal">
        <lane id=":23_6_0" index="0" speed="13.89" length="10.10" shape="588.60,60.43 598.32,63.18"/>
    </edge>
    <edge id=":23_7" function="internal">
        <lane id=":23_7_0" index="0" speed="13.89" length="4.73" shape="588.60,60.43 590.69,61.45 592.30,63.25"/>
    </edge>
    <edge id=":23_8" function="internal">
        <lane id=":23_8_0" index="0" speed="13.89" length="2.41" shape="588.60,60.43 589.58,61.56 589.76,62.46"/>
    </edge>
    <edge id=":23_10" function="internal">
        <lane id=":23_10_0" index="0" speed="13.89" length="6.20" shape="592.30,63.25 593.44,65.81 594.10,69.14"/>
    </edge>
    <edge id=":23_11" function="internal">
        <lane id=":23_11_0" index="0" speed="13.89" length="2.41" shape="589.76,62.46 589.15,63.15 587.74,63.62"/>
    </edge>
    <edge id=":24_0" function="internal">